<?xml version="1.0" encoding="UTF-8"?>

<!-- generated on 2024-04-04 06:33:07 by Eclipse SUMO netedit Version 1.12.0
<configuration xmlns:xsi="http://www.w3.org/2001/XMLSchema-instance" xsi:noNamespaceSchemaLocation="http://sumo.dlr.de/xsd/netconvertConfiguration.xsd">

    <output>
        <output-file value="/mnt/d/OneDrive%20-%20Massachusetts%20Institute%20of%20Technology/Research/sumo/circles.net.xml"/>
    </output>

    <processing>
        <offset.disable-normalization value="true"/>
    </processing>

    <junctions>
        <no-turnarounds value="true"/>
    </junctions>

    <report>
        <aggregate-warnings value="5"/>
    </report>

</configuration>
-->

<net version="1.9" junctionCornerDetail="5" limitTurnSpeed="5.50" xmlns:xsi="http://www.w3.org/2001/XMLSchema-instance" xsi:noNamespaceSchemaLocation="http://sumo.dlr.de/xsd/net_file.xsd">

    <location netOffset="0.00,0.00" convBoundary="0.31,9.79,92.40,77.92" origBoundary="10000000000.00,10000000000.00,-10000000000.00,-10000000000.00" projParameter="!"/>

    <edge id=":J0_0" function="internal">
        <lane id=":J0_0_0" index="0" speed="4.36" length="1.09" shape="44.00,76.00 44.30,76.12 44.52,76.17 44.74,76.16 45.05,76.09"/>
    </edge>
    <edge id=":J1_0" function="internal">
        <lane id=":J1_0_0" index="0" speed="4.26" length="1.23" shape="76.81,67.83 77.16,67.73 77.38,67.62 77.56,67.44 77.76,67.14"/>
    </edge>
    <edge id=":J2_0" function="internal">
        <lane id=":J2_0_0" index="0" speed="4.06" length="1.56" shape="90.14,47.55 90.32,47.19 90.39,46.82 90.37,46.45 90.26,46.06"/>
    </edge>
    <edge id=":J3_0" function="internal">
        <lane id=":J3_0_0" index="0" speed="4.30" length="1.17" shape="80.99,24.66 80.84,24.34 80.70,24.15 80.51,24.00 80.21,23.85"/>
    </edge>
    <edge id=":J4_0" function="internal">
        <lane id=":J4_0_0" index="0" speed="4.43" length="1.02" shape="54.63,11.68 54.36,11.56 54.15,11.51 53.94,11.51 53.65,11.56"/>
    </edge>
    <edge id=":J5_0" function="internal">
        <lane id=":J5_0_0" index="0" speed="4.46" length="1.00" shape="22.55,17.42 22.26,17.49 22.07,17.56 21.90,17.68 21.69,17.89"/>
    </edge>
    <edge id=":J6_0" function="internal">
        <lane id=":J6_0_0" index="0" speed="3.94" length="2.07" shape="3.12,37.20 2.80,37.64 2.65,38.11 2.68,38.59 2.88,39.10"/>
    </edge>
    <edge id=":J7_0" function="internal">
        <lane id=":J7_0_0" index="0" speed="4.42" length="1.03" shape="16.81,63.60 16.96,63.87 17.10,64.03 17.28,64.15 17.55,64.28"/>
    </edge>

    <edge id="E0" from="J0" to="J1" priority="-1">
        <lane id="E0_0" index="0" speed="13.89" length="32.81" shape="45.05,76.09 76.81,67.83"/>
    </edge>
    <edge id="E1" from="J1" to="J2" priority="-1">
        <lane id="E1_0" index="0" speed="13.89" length="23.17" shape="77.76,67.14 90.14,47.55"/>
    </edge>
    <edge id="E2" from="J2" to="J3" priority="-1">
        <lane id="E2_0" index="0" speed="13.89" length="23.33" shape="90.26,46.06 80.99,24.66"/>
    </edge>
    <edge id="E3" from="J3" to="J4" priority="-1">
        <lane id="E3_0" index="0" speed="13.89" length="28.32" shape="80.21,23.85 54.63,11.68"/>
    </edge>
    <edge id="E4" from="J4" to="J5" priority="-1">
        <lane id="E4_0" index="0" speed="13.89" length="31.64" shape="53.65,11.56 22.55,17.42"/>
    </edge>
    <edge id="E5" from="J5" to="J6" priority="-1">
        <lane id="E5_0" index="0" speed="13.89" length="26.79" shape="21.69,17.89 3.12,37.20"/>
    </edge>
    <edge id="E6" from="J6" to="J7" priority="-1">
        <lane id="E6_0" index="0" speed="13.89" length="28.19" shape="2.88,39.10 16.81,63.60"/>
    </edge>
    <edge id="E7" from="J7" to="J0" priority="-1">
        <lane id="E7_0" index="0" speed="13.89" length="28.93" shape="17.55,64.28 44.00,76.00"/>
    </edge>

    <junction id="J0" type="priority" x="44.38" y="77.92" incLanes="E7_0" intLanes=":J0_0_0" shape="45.46,77.64 44.65,74.54 43.35,77.46 44.10,77.76 44.38,77.81 44.67,77.80 45.01,77.74">
        <request index="0" response="0" foes="0" cont="0"/>
    </junction>
    <junction id="J1" type="priority" x="78.44" y="69.06" incLanes="E0_0" intLanes=":J1_0_0" shape="79.11,67.99 76.41,66.28 77.21,69.38 78.07,69.11 78.35,68.95 78.59,68.73 78.83,68.42">
        <request index="0" response="0" foes="0" cont="0"/>
    </junction>
    <junction id="J2" type="priority" x="92.40" y="46.98" incLanes="E1_0" intLanes=":J2_0_0" shape="91.72,45.43 88.79,46.70 91.49,48.41 91.92,47.44 92.00,46.95 92.00,46.45 91.90,45.94">
        <request index="0" response="0" foes="0" cont="0"/>
    </junction>
    <junction id="J3" type="priority" x="81.98" y="22.92" incLanes="E2_0" intLanes=":J3_0_0" shape="79.52,25.29 82.46,24.02 82.08,23.25 81.89,23.00 81.65,22.81 81.33,22.62 80.89,22.40">
        <request index="0" response="0" foes="0" cont="0"/>
    </junction>
    <junction id="J4" type="priority" x="54.38" y="9.79" incLanes="E3_0" intLanes=":J4_0_0" shape="53.94,13.13 55.32,10.24 54.63,9.94 54.36,9.88 54.09,9.87 53.77,9.91 53.35,9.99">
        <request index="0" response="0" foes="0" cont="0"/>
    </junction>
    <junction id="J5" type="priority" x="21.25" y="16.04" incLanes="E4_0" intLanes=":J5_0_0" shape="22.85,19.00 22.25,15.85 21.54,16.02 21.29,16.12 21.07,16.27 20.84,16.48 20.54,16.78">
        <request index="0" response="0" foes="0" cont="0"/>
    </junction>
    <junction id="J6" type="priority" x="0.31" y="37.81" incLanes="E5_0" intLanes=":J6_0_0" shape="1.49,39.89 4.27,38.31 1.97,36.09 1.18,37.28 1.02,37.90 1.02,38.54 1.18,39.21">
        <request index="0" response="0" foes="0" cont="0"/>
    </junction>
    <junction id="J7" type="priority" x="15.94" y="65.31" incLanes="E6_0" intLanes=":J7_0_0" shape="16.90,65.74 18.20,62.81 15.42,64.40 15.82,65.04 16.00,65.24 16.22,65.40 16.51,65.56">
        <request index="0" response="0" foes="0" cont="0"/>
    </junction>

    <connection from="E0" to="E1" fromLane="0" toLane="0" via=":J1_0_0" dir="s" state="M"/>
    <connection from="E1" to="E2" fromLane="0" toLane="0" via=":J2_0_0" dir="r" state="M"/>
    <connection from="E2" to="E3" fromLane="0" toLane="0" via=":J3_0_0" dir="s" state="M"/>
    <connection from="E3" to="E4" fromLane="0" toLane="0" via=":J4_0_0" dir="s" state="M"/>
    <connection from="E4" to="E5" fromLane="0" toLane="0" via=":J5_0_0" dir="s" state="M"/>
    <connection from="E5" to="E6" fromLane="0" toLane="0" via=":J6_0_0" dir="r" state="M"/>
    <connection from="E6" to="E7" fromLane="0" toLane="0" via=":J7_0_0" dir="s" state="M"/>
    <connection from="E7" to="E0" fromLane="0" toLane="0" via=":J0_0_0" dir="s" state="M"/>

    <connection from=":J0_0" to="E0" fromLane="0" toLane="0" dir="s" state="M"/>
    <connection from=":J1_0" to="E1" fromLane="0" toLane="0" dir="s" state="M"/>
    <connection from=":J2_0" to="E2" fromLane="0" toLane="0" dir="r" state="M"/>
    <connection from=":J3_0" to="E3" fromLane="0" toLane="0" dir="s" state="M"/>
    <connection from=":J4_0" to="E4" fromLane="0" toLane="0" dir="s" state="M"/>
    <connection from=":J5_0" to="E5" fromLane="0" toLane="0" dir="s" state="M"/>
    <connection from=":J6_0" to="E6" fromLane="0" toLane="0" dir="r" state="M"/>
    <connection from=":J7_0" to="E7" fromLane="0" toLane="0" dir="s" state="M"/>

</net>
