<configuration>
    <input>
       <net-file value="net.xml"/>
       
       <additional-files value="add.xml"/>
    </input>
    <output>
        <netstate-dump value="out2.xml" />
    </output>
</configuration>
