<configuration>
    <input>
       <net-file value="net.xml"/>
       
       <additional-files value="add.xml"/>
    </input>
    <logger name="traci" level="WARN"/>
</configuration>
