<configuration>
    <input>
       <net-file value="net.xml"/>
       
       <additional-files value="add.xml"/>
    </input>
</configuration>
