<configuration>
    <logger name="traci" level="WARN"/>
</configuration>
